Circuit: * C:\Users\mirtcho.maglijanov\TOSHIBA\Draft2.asc

Early termination of direct N-R iteration.
Direct Newton iteration failed to find .op point.  (Use ".option noopiter" to skip.)
Starting Gmin stepping
Gmin = 10
Gmin = 1.07374
Gmin = 0.115292
Gmin = 0.0123794
Gmin = 0.00132923
Gmin = 0.000142725
Gmin = 1.5325e-05
Gmin = 1.6455e-06
vernier = 0.5
Gmin = 2.7607e-07
vernier = 0.25
vernier = 0.125
vernier = 0.0625
vernier = 0.03125
Gmin = 2.37959e-07
vernier = 0.015625
vernier = 0.0078125
Gmin = 2.3291e-07
vernier = 0.0104167
vernier = 0.0138889
Gmin = 2.26832e-07
vernier = 0.0185185
Gmin = 2.17594e-07
vernier = 0.0246913
vernier = 0.0329218
Gmin = 2.02943e-07
vernier = 0.0438957
vernier = 0.0585276
Gmin = 1.81634e-07
vernier = 0.0780367
Gmin = 1.52622e-07
vernier = 0.104049
vernier = 0.138732
Gmin = 1.14149e-07
vernier = 0.184976
vernier = 0.246634
Gmin = 7.21256e-08
vernier = 0.328846
Gmin = 3.53409e-08
vernier = 0.438461
vernier = 0.584614
Gmin = 1.09716e-08
vernier = 0.779486
vernier = 1
Gmin = 1.8367e-09
Gmin = 1.97214e-10
Gmin = 2.11757e-11
Gmin = 2.27373e-12
Gmin = 2.4414e-13
Gmin = 0
Gmin stepping succeeded in finding the operating point.


Date: Thu Aug 17 12:44:23 2023
Total elapsed time: 0.143 seconds.

tnom = 27
temp = 27
method = modified trap
totiter = 7308
traniter = 5701
tranpoints = 2711
accept = 2323
rejected = 388
matrix size = 34
fillins = 87
solver = Normal
Avg thread counts: 3.0/3.1/1.2/1.1
Matrix Compiler1: 5.30 KB object code size  1.1/0.9/[0.9]
Matrix Compiler2: off  [0.3]/0.4/0.3

