Circuit: * C:\Users\mirtcho.maglijanov\TOSHIBA\Draft4.asc

Direct Newton iteration for .op point succeeded.
Semiconductor Device Operating Points:
                        --- Diodes ---
Name:    d:u1:gp     d:u1:gn     d:u1:op     d:u1:on     d:u1:ip
Model:    u1:dg       u1:dg       u1:do       u1:do       u1:di
Id:      3.26e-11    4.54e-11    1.13e-11    1.27e-11    8.38e-12
Vd:      3.26e+01    4.54e+01    1.12e+01    1.27e+01    8.37e+00
Req:     1.00e-12    1.00e-12    1.00e-12    1.00e-12    1.00e-12
CAP:     0.00e+00    0.00e+00    0.00e+00    0.00e+00    0.00e+00

Name:    d:u1:in     d:u2:gp     d:u2:gn     d:u2:op     d:u2:on
Model:    u1:di       u2:dg       u2:dg       u2:do       u2:do
Id:      1.41e-11    2.80e-11    5.00e-11    7.74e-12    1.63e-11
Vd:      1.41e+01    2.80e+01    5.00e+01    7.73e+00    1.62e+01
Req:     1.00e-12    1.00e-12    1.00e-12    1.00e-12    1.00e-12
CAP:     0.00e+00    0.00e+00    0.00e+00    0.00e+00    0.00e+00

Name:    d:u2:ip     d:u2:in
Model:    u2:di       u2:di
Id:      6.89e-12    1.56e-11
Vd:      6.88e+00    1.56e+01
Req:     1.00e-12    1.00e-12
CAP:     0.00e+00    0.00e+00



Date: Thu Aug 17 15:33:01 2023
Total elapsed time: 0.052 seconds.

tnom = 27
temp = 27
method = trap
totiter = 4
traniter = 0
tranpoints = 0
accept = 0
rejected = 0
matrix size = 190
fillins = 272
solver = Normal
Avg thread counts: 8.0/0.0/8.0/8.0
Matrix Compiler1: 26.00 KB object code size
Matrix Compiler2: 21.94 KB object code size
