Circuit: * C:\Users\mirtcho.maglijanov\TOSHIBA\Draft1.asc

Direct Newton iteration failed to find .op point.  (Use ".option noopiter" to skip.)
Starting Gmin stepping
Gmin = 10
Gmin = 1.07374
Gmin = 0.115292
Gmin = 0.0123794
Gmin = 0.00132923
vernier = 0.5
vernier = 0.25
vernier = 0.125
vernier = 0.0625
Gmin = 0.00100083
vernier = 0.03125
vernier = 0.015625
vernier = 0.0078125
vernier = 0.00390625
vernier = 0.00195312
Gmin = 0.00100083
vernier = 0.000976562
vernier = 0.000488281
Gmin = 0
Gmin stepping failed

Starting source stepping with srcstepmethod=0
Source Step = 3.0303%
Source Step = 33.3333%
Source Step = 63.6364%
Source Step = 73.5085%
vernier = 0.000976562
Source Step = 73.5263%
Source Step = 73.5559%
Source Step = 73.5855%
Source Step = 73.6151%
Source Step = 73.6446%
vernier = 0.00146484
Source Step = 73.6846%
Source Step = 73.729%
Source Step = 73.7734%
Source Step = 73.8178%
Source Step = 73.8622%
vernier = 0.00219727
Source Step = 73.9199%
Source Step = 73.9864%
Source Step = 74.053%
Source Step = 74.1196%
Source Step = 74.1862%
vernier = 0.0032959
Source Step = 74.2694%
Source Step = 74.3693%
Source Step = 74.4692%
Source Step = 74.5691%
Source Step = 74.6689%
vernier = 0.00494385
Source Step = 74.7888%
Source Step = 74.9386%
Source Step = 75.0884%
Source Step = 75.2382%
Source Step = 75.388%
vernier = 0.00741577
Source Step = 75.5603%
Source Step = 75.785%
Source Step = 76.0098%
Source Step = 76.2345%
Source Step = 76.4592%
vernier = 0.0111237
Source Step = 76.7064%
Source Step = 77.0435%
Source Step = 77.3806%
Source Step = 77.7176%
Source Step = 78.0547%
vernier = 0.0166855
Source Step = 78.4087%
Source Step = 78.9143%
Source Step = 79.4199%
Source Step = 79.9255%
Source Step = 80.4311%
Source Step = 80.9368%
vernier = 0.0250282
Source Step = 81.6952%
Source Step = 82.4536%
Source Step = 83.212%
Source Step = 83.9705%
Source Step = 84.7289%
vernier = 0.0375423
Source Step = 85.8286%
Source Step = 86.9663%
Source Step = 88.1039%
Source Step = 89.2416%
Source Step = 90.3792%
vernier = 0.0563135
Source Step = 91.292%
Source Step = 91.3187%
Source Step = 91.3453%
Source Step = 91.372%
Source Step = 91.3987%
Source Step = 91.4253%
Source Step = 91.452%
Source Step = 91.4787%
Source Step = 91.5053%
Source Step = 91.532%
Source Step = 91.5586%
Source Step = 91.5853%
Source Step = 91.612%
Source Step = 91.6386%
Source Step = 91.6653%
Source Step = 91.692%
Source Step = 91.7186%
Source Step = 91.7453%
Source Step = 91.772%
Source Step = 91.7986%
Source Step = 91.8253%
Source Step = 91.8519%
Source Step = 91.8786%
Source Step = 91.9053%
Source Step = 91.9319%
Source Step = 91.9586%
Source Step = 91.9853%
Source Step = 92.0119%
Source Step = 92.0386%
Source Step = 92.0653%
Source Step = 92.0919%
Source Step = 92.1186%
Source Step = 92.1452%
Source Step = 92.1719%
Source Step = 92.1986%
Source Step = 92.2252%
Source Step = 92.2519%
Source Step = 92.2786%
Source Step = 92.3052%
Source Step = 92.3319%
Source Step = 92.3586%
Source Step = 92.3852%
Source Step = 92.4119%
Source Step = 92.4385%
Source Step = 92.4652%
Source Step = 92.4919%
Source Step = 92.5185%
Source Step = 92.5452%
Source Step = 92.5719%
Source Step = 92.5985%
Source Step = 92.6252%
Source Step = 92.6519%
Source Step = 92.6785%
Source Step = 92.7052%
Source Step = 92.7318%
Source Step = 92.7585%
Source Step = 92.7852%
Source Step = 92.8118%
Source Step = 92.8385%
Source Step = 92.8652%
Source Step = 92.8918%
Source Step = 92.9185%
Source Step = 92.9452%
Source Step = 92.9718%
Source Step = 92.9985%
Source Step = 93.0251%
Source Step = 93.0518%
Source Step = 93.0785%
Source Step = 93.1051%
Source Step = 93.1318%
Source Step = 93.1585%
Source Step = 93.1851%
Source Step = 93.2118%
Source Step = 93.2384%
Source Step = 93.2651%
Source Step = 93.2918%
Source Step = 93.3184%
Source Step = 93.3451%
Source Step = 93.3718%
Source Step = 93.3984%
Source Step = 93.4251%
Source Step = 93.4518%
Source Step = 93.4784%
Source Step = 93.5051%
Source Step = 93.5317%
Source Step = 93.5584%
Source Step = 93.5851%
Source Step = 93.6117%
Source Step = 93.6384%
Source Step = 93.6651%
Source Step = 93.6917%
Source Step = 93.7184%
Source Step = 93.7451%
Source Step = 93.7717%
Source Step = 93.7984%
Source Step = 93.825%
Source Step = 93.8517%
Source Step = 93.8784%
Source Step = 93.905%
Source Step = 93.9317%
Source Step = 93.9584%
Source Step = 93.985%
Source Step = 94.0117%
Source Step = 94.0384%
Source Step = 94.065%
Source Step = 94.0917%
Source Step = 94.1183%
Source Step = 94.145%
Source Step = 94.1717%
Source Step = 94.1983%
Source Step = 94.225%
Source Step = 94.2517%
Source Step = 94.2783%
Source Step = 94.305%
Source Step = 94.3317%
Source Step = 94.3583%
Source Step = 94.385%
Source Step = 94.4116%
Source Step = 94.4383%
Source Step = 94.465%
Source Step = 94.4916%
Source Step = 94.5183%
Source Step = 94.545%
Source Step = 94.5716%
Source Step = 94.5983%
Source Step = 94.625%
Source Step = 94.6516%
Source Step = 94.6783%
Source Step = 94.7049%
Source Step = 94.7316%
Source Step = 94.7583%
Source Step = 94.7849%
Source Step = 94.8116%
Source Step = 94.8383%
Source Step = 94.8649%
Source Step = 94.8916%
Source Step = 94.9183%
Source Step = 94.9449%
Source Step = 94.9716%
Source Step = 94.9982%
Source Step = 95.0249%
Source Step = 95.0516%
Source Step = 95.0782%
Source Step = 95.1049%
Source Step = 95.1316%
Source Step = 95.1582%
Source Step = 95.1849%
Source Step = 95.2116%
Source Step = 95.2382%
Source Step = 95.2649%
Source Step = 95.2915%
Source Step = 95.3182%
Source Step = 95.3449%
Source Step = 95.3715%
Source Step = 95.3982%
Source Step = 95.4249%
Source Step = 95.4515%
Source Step = 95.4782%
Source Step = 95.5049%
Source Step = 95.5315%
Source Step = 95.5582%
Source Step = 95.5848%
Source Step = 95.6115%
Source Step = 95.6382%
Source Step = 95.6648%
Source Step = 95.6915%
Source Step = 95.7182%
Source Step = 95.7448%
Source Step = 95.7715%
Source Step = 95.7982%
Source Step = 95.8248%
Source Step = 95.8515%
Source Step = 95.8781%
Source Step = 95.9048%
Source Step = 95.9315%
Source Step = 95.9581%
Source Step = 95.9848%
Source Step = 96.0115%
Source Step = 96.0381%
Source Step = 96.0648%
Source Step = 96.0915%
Source Step = 96.1181%
Source Step = 96.1448%
Source Step = 96.1714%
Source Step = 96.1981%
Source Step = 96.2248%
Source Step = 96.2514%
Source Step = 96.2781%
Source Step = 96.3048%
Source Step = 96.3314%
Source Step = 96.3581%
Source Step = 96.3848%
Source Step = 96.4114%
Source Step = 96.4381%
Source Step = 96.4647%
Source Step = 96.4914%
Source Step = 96.5181%
Source Step = 96.5447%
Source Step = 96.5714%
Source Step = 96.5981%
Source Step = 96.6247%
Source Step = 96.6514%
Source Step = 96.6781%
Source Step = 96.7047%
Source Step = 96.7314%
Source Step = 96.758%
Source Step = 96.7847%
Source Step = 96.8114%
Source Step = 96.838%
Source Step = 96.8647%
Source Step = 96.8914%
Source Step = 96.918%
Source Step = 96.9447%
Source Step = 96.9714%
Source Step = 96.998%
Source Step = 97.0247%
Source Step = 97.0513%
Source Step = 97.078%
Source Step = 97.1047%
Source Step = 97.1313%
Source Step = 97.158%
Source Step = 97.1847%
Source Step = 97.2113%
Source Step = 97.238%
Source Step = 97.2647%
Source Step = 97.2913%
Source Step = 97.318%
Source Step = 97.3446%
Source Step = 97.3713%
Source Step = 97.398%
Source Step = 97.4246%
Source Step = 97.4513%
Source Step = 97.478%
Source Step = 97.5046%
Source Step = 97.5313%
Source Step = 97.558%
Source Step = 97.5846%
Source Step = 97.6113%
Source Step = 97.6379%
Source Step = 97.6646%
Source Step = 97.6913%
Source Step = 97.7179%
Source Step = 97.7446%
Source Step = 97.7713%
Source Step = 97.7979%
Source Step = 97.8246%
Source Step = 97.8513%
Source Step = 97.8779%
Source Step = 97.9046%
Source Step = 97.9312%
Source Step = 97.9579%
Source Step = 97.9846%
Source Step = 98.0112%
Source Step = 98.0379%
Source Step = 98.0646%
Source Step = 98.0912%
Source Step = 98.1179%
Source Step = 98.1446%
Source Step = 98.1712%
Source Step = 98.1979%
Source Step = 98.2245%
Source Step = 98.2512%
Source Step = 98.2779%
Source Step = 98.3045%
Source Step = 98.3312%
Source Step = 98.3579%
Source Step = 98.3845%
Source Step = 98.4112%
Source Step = 98.4379%
Source Step = 98.4645%
Source Step = 98.4912%
Source Step = 98.5178%
Source Step = 98.5445%
Source Step = 98.5712%
Source Step = 98.5978%
Source Step = 98.6245%
Source Step = 98.6512%
Source Step = 98.6778%
Source Step = 98.7045%
Source Step = 98.7312%
Source Step = 98.7578%
Source Step = 98.7845%
Source Step = 98.8111%
Source Step = 98.8378%
Source Step = 98.8645%
Source Step = 98.8911%
Source Step = 98.9178%
Source Step = 98.9445%
Source Step = 98.9711%
Source Step = 98.9978%
Source Step = 99.0245%
Source Step = 99.0511%
Source Step = 99.0778%
Source Step = 99.1044%
Source Step = 99.1311%
Source Step = 99.1578%
Source Step = 99.1844%
Source Step = 99.2111%
Source Step = 99.2378%
Source Step = 99.2644%
Source Step = 99.2911%
Source Step = 99.3177%
Source Step = 99.3444%
Source Step = 99.3711%
Source Step = 99.3977%
Source Step = 99.4244%
Source Step = 99.4511%
Source Step = 99.4777%
Source Step = 99.5044%
Source Step = 99.5311%
Source Step = 99.5577%
Source Step = 99.5844%
Source Step = 99.611%
Source Step = 99.6377%
Source Step = 99.6644%
Source Step = 99.691%
Source Step = 99.7177%
Source Step = 99.7444%
Source Step = 99.771%
Source Step = 99.7977%
Source Step = 99.8244%
Source Step = 99.851%
Source Step = 99.8777%
Source Step = 99.9043%
Source Step = 99.931%
Source Step = 99.9577%
Source Step = 99.9843%
Source Step = 100%
Source stepping succeeded in finding the operating point.


Date: Wed Nov 15 10:31:37 2023
Total elapsed time: 10.160 seconds.

tnom = 27
temp = 27
method = trap
totiter = 184400
traniter = 0
tranpoints = 0
accept = 0
rejected = 0
matrix size = 139
fillins = 235
solver = Normal
Avg thread counts: 1.0/0.0/1.1/1.0
Matrix Compiler1:     868 opcodes
Matrix Compiler2: 15.14 KB object code size  0.6/1.2/[0.6]

